%%%%%%%%%%%%%%%%%%%%%%%%%%%%%%%%%%%%%%%%%%%%%%%%%%%%%%%%%%%%%%%%%%%%%%%%%%%%%%%%
%                                                                              %
% SU2 configuration file                                                       %
% Case description: Beam test case                                             %
% Author: R.Sanchez                                                            %
% Institution: Imperial College London                                         %
% Date: 2016.08.11                                                             %
% File Version 4.0.1 "cardinal"                                                %
%                                                                              %
%%%%%%%%%%%%%%%%%%%%%%%%%%%%%%%%%%%%%%%%%%%%%%%%%%%%%%%%%%%%%%%%%%%%%%%%%%%%%%%%

% ------------- DIRECT, ADJOINT, AND LINEARIZED PROBLEM DEFINITION ------------%
%
% Physical governing equations (EULER, NAVIER_STOKES,
%                               TNE2_EULER, TNE2_NAVIER_STOKES,
%                               WAVE_EQUATION, HEAT_EQUATION, LINEAR_ELASTICITY,
%                               POISSON_EQUATION)
PHYSICAL_PROBLEM= FEM_ELASTICITY
%
% Mathematical problem (DIRECT, ADJOINT, LINEARIZED, ONE_SHOT_ADJOINT)
MATH_PROBLEM= DIRECT
%
% Restart solution (NO, YES)
RESTART_SOL= NO
%
% Convergence tolerance
CRITERIA_FEM_ADJ = -10
%
% Objective function
OBJECTIVE_FUNCTION = MINIMUM_COMPLIANCE
%
% --------------------------- MESH INPUT FILE ---------------------------------%
%
% Mesh input file
MESH_FILENAME= meshBeam_2d.su2
%
% -------------------- BOUNDARY CONDITION DEFINITION --------------------------%
%
% Roller boundary marker(s) (NONE = no marker)
% Format: ( roller marker, index)
MARKER_ROLLER = ( left , 0,  lowerright, 1 )
%
% Load boundary marker(s) (NONE = no marker)
% Format: ( load marker, index, value, direction)
MARKER_LOAD= ( upperleft, 1, 1000, 0, -1, 0)
%
% -------------------------- PROBLEM DEFINITION -------------------------------%
%
% Geometric conditions (SMALL_DEFORMATIONS, LARGE_DEFORMATIONS)
GEOMETRIC_CONDITIONS= SMALL_DEFORMATIONS
%
% Material model (LINEAR_ELASTIC, NEO_HOOKEAN)
MATERIAL_MODEL= LINEAR_ELASTIC
FORMULATION_ELASTICITY_2D = PLANE_STRESS
%
% Material compressibility (COMPRESSIBLE, INCOMPRESSIBLE)
MATERIAL_COMPRESSIBILITY= COMPRESSIBLE
%
% --------------------------- MATERIAL CONSTANTS ------------------------------%
%
% Value of the Elasticity modulus
ELASTICITY_MODULUS=1E7
%
% Value of the Poisson ratio
POISSON_RATIO=0.3
%
% Value of the material density
MATERIAL_DENSITY=1000
%
% Dead load enabled
DEAD_LOAD=NO
%
% -------------------------- CONVERGENCE CRITERIA -----------------------------%
%
% Iterative solution method for nonlinear structural analysis (NEWTON_RAPHSON, MODIFIED_NEWTON_RAPHSON)
NONLINEAR_FEM_SOLUTION_METHOD = NEWTON_RAPHSON
%
% Maximum number of iterations for the Newton-Raphson method
NONLINEAR_FEM_INT_ITER = 1
%
% Convergence tolerance for UTOL = norm(Delta_U(k)) / norm(U(k))
RESIDUAL_FEM_UTOL = -9.0
%
% Convergence tolerance for RTOL = norm(Residual(k)) / norm(Residual(0))
RESIDUAL_FEM_RTOL = -7.0
%
% Convergence tolerance for ETOL = Delta_U(k) * Residual(k) / Delta_U(0) * Residual(0)
RESIDUAL_FEM_ETOL = -9.0

% -----------------------------------------------------------------------------%
% ------------------------------ INPUT/OUTPUT----------------------------------%
% -----------------------------------------------------------------------------%
%
% Output file convergence history (w/o extension) 
CONV_FILENAME= history
%
% Output file name (PARAVIEW, TECPLOT)
VOLUME_STRUCTURE_FILENAME= beam
%
% Output file convergence history for FSI requested
WRITE_CONV_FILENAME_FSI = NO
%
% Forces breakdown file
BREAKDOWN_FILENAME= forces_breakdown.dat
%
% Output file name (PARAVIEW, TECPLOT)
SOLUTION_STRUCTURE_FILENAME= solution_beam.dat
%
% Output file restart flow
RESTART_STRUCTURE_FILENAME= restart_beam.dat
%
WRT_SRF_SOL = NO
WRT_CSV_SOL = NO

% ------------------------- INPUT/OUTPUT INFORMATION --------------------------%
%
% Mesh input file format (SU2, CGNS NETCDF_ASCII)
MESH_FORMAT= SU2
%
% Output file format (PARAVIEW, TECPLOT)
OUTPUT_FORMAT= PARAVIEW
%
% Writing convergence history frequency
WRT_CON_FREQ= 1
%
% Writing convergence history frequency (dual time, only written to screen)
WRT_CON_FREQ_DUALTIME= 1
%
% Writing solution file frequency
WRT_SOL_FREQ= 1
%
% Writing solution file frequency for physical time steps (dual time)
WRT_SOL_FREQ_DUALTIME= 1

% ------------------------ LINEAR SOLVER DEFINITION ---------------------------%
%
% Linear solver for the implicit (or discrete adjoint) formulation (BCGSTAB, FGMRES)
LINEAR_SOLVER= CONJUGATE_GRADIENT
%
% Preconditioner of the Krylov linear solver (JACOBI, LINELET, LU_SGS)
LINEAR_SOLVER_PREC= JACOBI
%
% Min error of the linear solver for the implicit formulation
LINEAR_SOLVER_ERROR= 1E-8
%
% Max number of iterations of the linear solver for the implicit formulation
LINEAR_SOLVER_ITER= 1000
%
% Linear solver for the discrete adjoint formulation
DISCADJ_LIN_SOLVER= CONJUGATE_GRADIENT
DISCADJ_LIN_PREC= JACOBI
